###############################################################################
#
# Environment file for GCClassic + GNU Compiler Collection 12.2.0
#
# this file loads spack modules. IT DOES NOT UPDATE THEM
#
###############################################################################

# Display message (if we are in a terminal window)
if [[ $- = *i* ]] ; then
  echo "Loading modules for GEOS-Chem Classic, please wait ..."
fi

#==============================================================================
# Unload all previously-unloaded software
#==============================================================================

# Unload packages loaded with "module load"
# not needed ??

# spack purge


# Setup Spack if it hasn't already been done
# ${SPACK_ROOT} will be blank if the setup-env.sh script hasn't been called.
# (modifiable) Replace "/path/to/spack" with the path to your Spack root directory
if [[ "x${SPACK_ROOT}" == "x" ]]; then
   source /home/bryan/spack/share/spack/setup-env.sh
fi

#==============================================================================
# Load software packages for GNU 12.2.0
#==============================================================================
if [[ $- = *i* ]] ; then
  echo "... Loading spack-built software, please wait ..."
fi

# Pre-built modules needed for GEOS-Chem
# (NOTE: These may be named differently on your system)
spack load esmf%gcc^openmpi
spack load cdo%gcc^openmpi
spack load nco%gcc^openmpi
spack load flex

#==============================================================================
# Environment variables and related settings
# (NOTE: Lmod will define <module>_HOME variables for each loaded module)
#==============================================================================

# Make all files world-readable by default
umask 022

# use all cores on machine
export OMP_NUM_THREADS=16


# Max out the stacksize memory limit
export OMP_STACKSIZE="1900m"

#=========================================================================
# Set environment variables for compilers
#=========================================================================
export CC=gcc
export CXX=g++
export FC=gfortran
export F77=gfortran

#=========================================================================
# Set environment variables for Spack-built modules
#=========================================================================

# openmpi (needed for GCHP)
export MPI_ROOT=$(spack location -i openmpi%gcc)

# esmf (needed for GCHP)
export ESMF_DIR=$(spack location -i esmf%gcc^openmpi)
export ESMF_LIB=${ESMF_DIR}/lib
export ESMF_COMPILER=gfortran
export ESMF_COMM=openmpi
export ESMF_INSTALL_PREFIX=${ESMF_DIR}/INSTALL_gfortran10_openmpi4

# netcdf-c
export NETCDF_HOME=$(spack location -i netcdf-c%gcc^openmpi)
export NETCDF_LIB=$NETCDF_HOME/lib

# netcdf-fortran
export NETCDF_FORTRAN_HOME=$(spack location -i netcdf-fortran%gcc^openmpi)
export NETCDF_FORTRAN_LIB=$NETCDF_FORTRAN_HOME/lib

# flex
export FLEX_HOME=$(spack location -i flex%gcc)
export FLEX_LIB=$NETCDF_FORTRAN_HOME/lib
export KPP_FLEX_LIB_DIR=${FLEX_LIB}       # OPTIONAL: Needed for KPP

#==============================================================================
# Set limits
#==============================================================================

ulimit -c unlimited   # coredumpsize
ulimit -u 50000       # maxproc
ulimit -v unlimited   # vmemoryuse
ulimit -s unlimited   # stacksize

#==============================================================================
# Print information
#==============================================================================

echo ""
echo "Environment:"
echo ""
echo "CC                  : ${CC}"
echo "CXX                 : ${CXX}"
echo "FC                  : ${FC}"
echo "KPP_FLEX_LIB_DIR    : ${KPP_FLEX_LIB_DIR}"
echo "MPI_HOME            : ${MPI_HOME}"
echo "NETCDF_HOME         : ${NETCDF_HOME}"
echo "NETCDF_FORTRAN_HOME : ${NETCDF_FORTRAN_HOME}"
echo "OMP_NUM_THREADS     : ${OMP_NUM_THREADS}"
echo ""
echo "Done sourcing ${BASH_SOURCE[0]}"

echo "PLEASE NOTE THAT THIS MODULE LOADS MODULES BUT DOES NOT UPDATE THEM"
# update via algorithm at https://geos-chem.readthedocs.io/en/stable/ ...
#     geos-chem-shared-docs/supplemental-guides/spack-guide.html#spackguide
